
**** 03/24/17 00:58:47 ****** PSpice Lite (October 2012) ****** ID# 10813 ****

 ** Fractional Capacitance Simulation - Winter Training


 ****     CIRCUIT DESCRIPTION


******************************************************************************



.lib eval.lib
R1 2 1 1k
C1 2 3 1uF
Vin 1 3 dc 1V
.dc Vin -10V 10V 0.01V
.probe
.end

ERROR(ORPSIM-15142): Node 2 is floating

ERROR(ORPSIM-15142): Node 1 is floating

ERROR(ORPSIM-15142): Node 3 is floating
