
**** 03/24/17 01:00:45 ****** PSpice Lite (October 2012) ****** ID# 10813 ****

 ** Fractional Capacitance Simulation - Winter Training


 ****     CIRCUIT DESCRIPTION


******************************************************************************



.lib eval.lib
R1 2 1 1k
C1 2 0 1uF
Vin 1 0 dc 1V
.dc Vin -10V 10V 0.01V
.probe
.end


          JOB CONCLUDED

**** 03/24/17 01:00:45 ****** PSpice Lite (October 2012) ****** ID# 10813 ****

 ** Fractional Capacitance Simulation - Winter Training


 ****     JOB STATISTICS SUMMARY


******************************************************************************



  Total job time (using Solver 1)   =         .08
